CRYSTAL
PRIMVEC
    4.997000     0.000000     0.000000
    0.000000     5.770000     0.000000
    0.000000     0.000000     9.422356
CONVVEC
    4.997000     0.000000     0.000000
    0.000000     5.770000     0.000000
    0.000000     0.000000     9.422356
PRIMCOORD
16 1
79     0.416413     0.596491     0.000000
79     2.914893     2.038989     0.000000
79     0.416413     3.481491     0.000000
79     2.914893     4.923989     0.000000
79     3.747719     0.596491     2.355590
79     1.249240     2.038989     2.355590
79     3.747719     3.481491     2.355590
79     1.249240     4.923989     2.355590
79     2.082066     0.596491     4.711180
79     4.580546     2.038989     4.711180
79     2.082066     3.481491     4.711180
79     4.580546     4.923989     4.711180
79     0.416413     0.596491     7.066768
79     2.914893     2.038989     7.066768
79     0.416413     3.481491     7.066768
79     2.914893     4.923989     7.066768
