 CRYSTAL
 PRIMVEC
     8.472000    -0.000000    -0.000000
     0.000000     9.782620    -0.000000
     0.000000     0.000000     6.917360
 CONVVEC
     8.472000    -0.000000    -0.000000
     0.000000     9.782620    -0.000000
     0.000000     0.000000     6.917360
 PRIMCOORD
 36     1
 79     2.118000     2.038046     1.152893
 79     0.706000     4.483702     1.152893
 79     4.942000     2.038046     1.152893
 79     3.530000     4.483702     1.152893
 79     7.766000     2.038046     1.152893
 79     6.354000     4.483702     1.152893
 79     2.118000     6.929358     1.152893
 79     0.706000     9.375014     1.152893
 79     4.942000     6.929358     1.152893
 79     3.530000     9.375014     1.152893
 79     7.766000     6.929358     1.152893
 79     6.354000     9.375014     1.152893
 79     2.118000     0.407609     3.458679
 79     0.706000     2.853265     3.458679
 79     4.942000     0.407609     3.458679
 79     3.530000     2.853265     3.458679
 79     7.766000     0.407609     3.458679
 79     6.354000     2.853265     3.458679
 79     2.118000     5.298921     3.458679
 79     0.706000     7.744577     3.458679
 79     4.942000     5.298921     3.458679
 79     3.530000     7.744577     3.458679
 79     7.766000     5.298921     3.458679
 79     6.354000     7.744577     3.458679
 79     0.706000     1.222828     5.764465
 79     2.118000     3.668484     5.764465
 79     3.530000     1.222828     5.764465
 79     4.942000     3.668484     5.764465
 79     6.354000     1.222828     5.764465
 79     7.766000     3.668484     5.764465
 79     0.706000     6.114139     5.764465
 79     2.118000     8.559795     5.764465
 79     3.530000     6.114139     5.764465
 79     4.942000     8.559795     5.764465
 79     6.354000     6.114139     5.764465
 79     7.766000     8.559795     5.764465
