CRYSTAL
PRIMVEC
   10.000000     0.000000     0.000000
    0.000000     5.520480     0.000000
    0.000000     0.000000     3.186870
CONVVEC
   10.000000     0.000000     0.000000
    0.000000     5.520480     0.000000
    0.000000     0.000000     3.18687
PRIMCOORD
6 1
16     0.000238     1.840433     0.000000
16     3.208280     1.840433     0.000000
42     1.604259     0.000000     0.000169
42     1.604259     2.760090     1.593435
16     0.000000     4.600630     1.593621
16     3.208518     4.600630     1.593621
