CRYSTAL
PRIMVEC
   14.342724     0.000000     0.000000
    0.000000     5.520480     0.000000
    0.000000     0.000000    35.000000
CONVVEC
   14.342724     0.000000     0.000000
    0.000000     5.520480     0.000000
    0.000000     0.000000    35.000000
PRIMCOORD
72 1
79     0.398405     0.570696     0.000000
79     2.788840     1.950814     0.000000
79     0.398405     3.330936     0.000000
79     2.788840     4.711054     0.000000
79     5.179313     0.570696     0.000000
79     7.569748     1.950814     0.000000
79     5.179313     3.330936     0.000000
79     7.569748     4.711054     0.000000
79     9.960221     0.570696     0.000000
79    12.350656     1.950814     0.000000
79     9.960221     3.330936     0.000000
79    12.350656     4.711054     0.000000
79     3.585651     0.570696     2.253724
79     1.195217     1.950814     2.253724
79     3.585651     3.330936     2.253724
79     1.195217     4.711054     2.253724
79     8.366559     0.570696     2.253724
79     5.976125     1.950814     2.253724
79     8.366559     3.330936     2.253724
79     5.976125     4.711054     2.253724
79    13.147467     0.570696     2.253724
79    10.757033     1.950814     2.253724
79    13.147467     3.330936     2.253724
79    10.757033     4.711054     2.253724
79     1.992028     0.570696     4.507448
79     4.382463     1.950814     4.507448
79     1.992028     3.330936     4.507448
79     4.382463     4.711054     4.507448
79     6.772936     0.570696     4.507448
79     9.163371     1.950814     4.507448
79     6.772936     3.330936     4.507448
79     9.163371     4.711054     4.507448
79    11.553844     0.570696     4.507448
79    13.944279     1.950814     4.507448
79    11.553844     3.330936     4.507448
79    13.944279     4.711054     4.507448
79     0.398405     0.570696     6.761170
79     2.788840     1.950814     6.761170
79     0.398405     3.330936     6.761170
79     2.788840     4.711054     6.761170
79     5.179313     0.570696     6.761170
79     7.569748     1.950814     6.761170
79     5.179313     3.330936     6.761170
79     7.569748     4.711054     6.761170
79     9.960221     0.570696     6.761170
79    12.350656     1.950814     6.761170
79     9.960221     3.330936     6.761170
79    12.350656     4.711054     6.761170
16     0.000238     1.840433     9.424450
16     3.208280     1.840433     9.424450
42     1.604259     0.000000     9.424619
42     1.604259     2.760090    11.017885
16     0.000000     4.600630    11.018071
16     3.208518     4.600630    11.018071
16     0.000238     1.840433    12.611320
16     3.208280     1.840433    12.611320
42     1.604259     0.000000    12.611489
42     1.604259     2.760090    14.204755
16     0.000000     4.600630    14.204941
16     3.208518     4.600630    14.204941
16     0.000238     1.840433    15.798190
16     3.208280     1.840433    15.798190
42     1.604259     0.000000    15.798359
42     1.604259     2.760090    17.391625
16     0.000000     4.600630    17.391811
16     3.208518     4.600630    17.391811
16     0.000238     1.840433    18.985060
16     3.208280     1.840433    18.985060
42     1.604259     0.000000    18.985229
42     1.604259     2.760090    20.578495
16     0.000000     4.600630    20.578681
16     3.208518     4.600630    20.578681
